14

C         -5.59449        1.49286        0.55391
C         -5.69332        2.54314       -0.52484
C         -5.19380        3.77528       -0.39499
O         -2.69000        2.68004        0.56642
C         -3.12754        1.77146        1.25222
C         -4.20223        0.85569        0.73863
H         -6.26676        0.66126        0.24973
H         -5.98043        1.89762        1.51461
H         -6.23551        2.29986       -1.43423
H         -4.68516        4.08838        0.50925
H         -5.31490        4.49491       -1.19814
H         -2.68405        1.58233        2.22453
H         -3.86492        0.39483       -0.21491
H         -4.32087        0.04085        1.48539
