22
Dummy for XTB/TM calculation
 C        -3.64387         0.37069        0.678518
 C        -3.41837        0.962624       -0.676993
 C        -2.25361         1.61259       -0.699389
 C        -1.63707         1.53125        0.598911
 C        -2.43317         0.81406         1.42212
 H        -3.67339       -0.716551        0.606305
 H        -4.56742        0.725596         1.14501
 H        -4.08861        0.842745        -1.50641
 H        -1.82501         2.12813        -1.53984
 H       -0.691358         1.98278        0.850592
 H         -2.2394        0.575129         2.45388
 C        -2.53822         -2.2956       -0.760075
 C        -2.06664        -2.39524        0.486855
 C       -0.585421        -2.21833        0.480388
 C       -0.302057        -1.99891       -0.966299
 C        -1.44746        -2.05176        -1.66469
 H        -3.56862        -2.38979        -1.05548
 H        -2.64716        -2.57181         1.37347
 H      -0.0700172        -3.10429        0.859349
 H       -0.283659        -1.35667         1.08037
 H        0.686635        -1.82946         -1.3551
 H        -1.55818        -1.93089         -2.7282
