22
Dummy for XTB/TM calculation
 C         -3.7454        0.145724        0.678555
 C        -3.28459        0.174485        -0.76445
 C        -2.04273         0.96354        -0.78299
 C        -1.50147        0.892149         0.43107
 C         -2.3519       0.0340946         1.27072
 H        -4.36915       -0.714336        0.891811
 H        -4.30771         1.03277        0.996113
 H        -3.99622        0.215038        -1.58039
 H        -1.59919         1.38062        -1.66601
 H       -0.530748         1.25656        0.700806
 H        -2.19366     -0.00377339         2.34052
 C         -2.6569        -1.40914       -0.726922
 C         -2.0944        -1.49723        0.677226
 C       -0.595583         -1.7499        0.538366
 C       -0.351184        -1.57882       -0.929404
 C        -1.47915         -1.4881        -1.61836
 H        -3.58909        -1.87783        -1.02026
 H        -2.62393        -2.02793         1.46004
 H       -0.330528        -2.78078          0.8241
 H      -0.0154646        -1.06687         1.16349
 H        0.643236        -1.63768        -1.34218
 H        -1.56728          -1.427        -2.69429
