22
Dummy for XTB/TM calculation
 C        -3.74412        0.202524        0.670509
 C        -3.25619        0.100781       -0.774514
 C        -2.06379         1.01036       -0.759439
 C        -1.51833        0.930966        0.447627
 C        -2.34978       -0.018889         1.26057
 H          -4.434       -0.598579        0.930504
 H        -4.19839         1.15964        0.925795
 H         -3.9802        0.235397        -1.57272
 H        -1.68929         1.52702         -1.6229
 H       -0.609472          1.3925        0.786095
 H        -2.23347       0.0211094         2.34031
 C        -2.65925        -1.35947       -0.736545
 C        -2.07396        -1.45229        0.689345
 C       -0.580389        -1.76681         0.52484
 C       -0.345919        -1.64346       -0.948944
 C        -1.47218        -1.50996         -1.6303
 H         -3.4784        -2.04287       -0.967642
 H        -2.57954        -2.15193         1.35457
 H       -0.345657        -2.79028        0.830336
 H       0.0242599        -1.09363         1.13201
 H        0.641121        -1.74289        -1.36762
 H         -1.5681        -1.48205        -2.70201
