30

C         -4.71600        1.86590       -0.08106
C         -4.82763        0.46608        0.06438
C         -3.45137        2.47944       -0.11932
C         -2.32621        1.66444       -0.00966
C         -2.43275        0.29661        0.13252
C         -3.67562       -0.33348        0.17296
C         -0.90662        1.99145       -0.01432
C         -0.18871        0.71042        0.13621
N         -1.16583       -0.31876        0.22416
O         -0.42566        3.10791       -0.12202
C          1.14628        0.51605        0.18525
N          2.12326        1.54537        0.09749
C          3.39023        0.93031        0.18993
C          3.28394       -0.43753        0.33219
C          1.86436       -0.76486        0.33603
O          1.38354       -1.88140        0.44366
C          4.63291        1.56079        0.15029
C          5.78508        0.76162        0.25980
C          5.67378       -0.63822        0.40534
C          4.40930       -1.25217        0.44274
H         -5.60943        2.47101       -0.16366
H         -5.80621        0.00482        0.09257
H         -3.35588        3.55168       -0.23049
H         -3.75261       -1.40713        0.28471
H         -1.00261       -1.32873        0.33430
H          1.95993        2.55530       -0.01272
H          4.70961        2.63445        0.03850
H          6.76353        1.22322        0.23230
H          6.56736       -1.24300        0.48871
H          4.31409       -2.32442        0.55403
