17

C         -3.21955        1.09760        0.60209
C         -2.38836       -0.19894        0.59000
C         -4.71459        0.75019        0.47490
C         -2.79724        1.98919       -0.58060
C         -2.97798        1.84997        1.92407
H         -2.54851       -0.75807       -0.35724
H         -2.67798       -0.85781        1.43708
H         -1.30442        0.02980        0.68093
H         -4.91087        0.20580       -0.47412
H         -5.33326        1.67362        0.48158
H         -5.04034        0.10607        1.32019
H         -2.96374        1.46405       -1.54602
H         -1.71966        2.25192       -0.50786
H         -3.38613        2.93187       -0.59031
H         -3.56968        2.79048        1.95326
H         -1.90320        2.11054        2.03572
H         -3.27676        1.22293        2.79187
