10
Coordinates from ORCA-job OPT_Ar-2
  C   -5.00747316762953     -9.07932956173263     -7.31243259212095
  C   -5.01930470260390     -8.07198143267081     -6.33212712371493
  C   -3.95290306609327     -7.19565868940045     -6.59708297525138
  C   -3.28193618185351     -7.66117864482178     -7.74129340740547
  C   -3.93340469616345     -8.82587486281753     -8.18279445534493
  H   -3.65577689361382     -9.42422669804492     -9.04374537432779
  H   -2.41373146294145     -7.20248061124523     -8.20163342235245
  H   -3.69231842193683     -6.31482406204959     -6.02041587983849
  H   -5.72750231600691     -7.98604171230985     -5.51511064822139
  H   -5.70419909115732     -9.90748372490716     -7.38424412142221
