14
Dummy for XTB/TM calculation
 C        -7.18979         1.96655          0.2252
 C        -7.31865        0.609354        0.612418
 H        -7.37744         2.24193        -1.32875
 H        -5.31075         1.00533         -1.2511
 O        -5.23593         1.21115         1.36482
 H        -5.98786         0.25263        0.102701
 C        -6.15972         1.69448       -0.520661
 C        -5.83413        0.233962       -0.616995
 H        -6.92941         3.52519         1.08533
 H        -7.07573         2.96121        0.866529
 C        -6.61692        -0.92837       -0.109508
 H        -4.70565         1.49277        -1.69251
 H        -6.64669       -0.790932        0.203906
 H        -4.69816         1.99791         1.62864
