14
Dummy for XTB/TM calculation
 C        -7.48387         1.97604       -0.253593
 C         -7.6333        0.965801        0.594311
 H        -7.60368         2.09873        -1.30755
 H         -5.4486        0.327752        -1.61042
 O        -5.55603          1.7803         1.32435
 H        -6.78822        0.238668        0.739204
 C        -6.07606         1.51994     -0.00984689
 C         -5.6991       0.0953925       -0.276169
 H        -6.83869         4.04538        0.342733
 H        -7.36339         3.32385        0.272515
 C        -5.72228        -1.10177        0.031788
 H         -4.9104        0.408374        -2.31757
 H        -6.07924        -1.48232        0.938296
 H        -4.91442          2.4936         1.39037
