 xtb: 6.5.1 (579679a)
          06222311243D

 14 13  0     0  0            999 V2000
   -1.0203    5.8679   -3.3137 C   0  0  0  0  0  0  0  0  0  0  0  0
   -2.1056    5.3930   -2.7343 C   0  0  0  0  0  0  0  0  0  0  0  0
   -2.5709    3.9657   -2.8086 C   0  0  0  0  0  0  0  0  0  0  0  0
   -1.8522    3.1472   -3.7040 O   0  0  0  0  0  0  0  0  0  0  0  0
   -2.0832    3.2985   -5.0299 C   0  0  0  0  0  0  0  0  0  0  0  0
   -2.8803    4.1560   -5.6462 C   0  0  0  0  0  0  0  0  0  0  0  0
   -0.3800    5.2421   -3.9126 H   0  0  0  0  0  0  0  0  0  0  0  0
   -0.7309    6.8998   -3.2155 H   0  0  0  0  0  0  0  0  0  0  0  0
   -2.7426    6.0263   -2.1308 H   0  0  0  0  0  0  0  0  0  0  0  0
   -3.6441    3.9399   -3.0498 H   0  0  0  0  0  0  0  0  0  0  0  0
   -2.4361    3.4964   -1.8261 H   0  0  0  0  0  0  0  0  0  0  0  0
   -1.5008    2.5677   -5.5762 H   0  0  0  0  0  0  0  0  0  0  0  0
   -3.4558    4.9039   -5.1315 H   0  0  0  0  0  0  0  0  0  0  0  0
   -2.9662    4.1341   -6.7161 H   0  0  0  0  0  0  0  0  0  0  0  0
  1  2  2  0  0  0  0
  2  3  1  0  0  0  0
  3  4  1  0  0  0  0
  4  5  1  0  0  0  0
  5  6  2  0  0  0  0
  1  7  1  0  0  0  0
  1  8  1  0  0  0  0
  2  9  1  0  0  0  0
  3 10  1  0  0  0  0
  3 11  1  0  0  0  0
  5 12  1  0  0  0  0
  6 13  1  0  0  0  0
  6 14  1  0  0  0  0
M  END
