12

C         -6.68860        2.29307       -0.02309
C         -6.65614        0.95220       -0.07249
C         -5.42608        3.06766        0.00696
C         -4.12756        2.35487       -0.01790
C         -4.09510        1.01400       -0.06730
C         -5.35762        0.23941       -0.09724
O         -5.32810       -0.97988       -0.14211
O         -5.45560        4.28694        0.05198
H         -7.64328        2.81033       -0.00514
H         -7.58467        0.38949       -0.09433
H         -3.19902        2.91758        0.00387
H         -3.14042        0.49674       -0.08532
