14
Dummy for XTB/TM calculation
 C        -6.34744         1.89678        0.974215
 C        -5.85671         2.50566        -0.08795
 C        -4.64215         3.39163      -0.0855132
 O        -3.70514         3.14006        0.942247
 C         -3.2093         1.88795         1.08095
 C        -3.34107        0.838541        0.286763
 H        -7.23069         1.28495        0.913729
 H        -5.88071         1.97495         1.94158
 H        -6.32758         2.39888        -1.05585
 H        -4.95885         4.42689       0.0924323
 H        -4.14732         3.35244         -1.0667
 H        -2.62311         1.83944         1.99049
 H        -3.91501        0.845996       -0.621564
 H        -2.86198      -0.0855237         0.55028
