14
Dummy for XTB/TM calculation
 C        -5.61006         1.55264        0.684511
 C        -5.65582         2.55486       -0.424654
 C        -5.29511         3.81845       -0.312531
 O        -2.64057          2.6016        0.442416
 C        -3.20724         1.80374         1.13392
 C        -4.24148        0.824557        0.667742
 H        -6.39276        0.804387        0.550833
 H        -5.74657         2.03646         1.65418
 H        -5.90812         2.15267        -1.39691
 H        -5.05208         4.27385        0.632865
 H        -5.27458         4.46942        -1.16994
 H        -3.04434         1.78897         2.23177
 H        -4.03026        0.503712       -0.352449
 H        -4.27713      -0.0365554          1.3348
