14
Dummy for XTB/TM calculation
 C        -5.57051         1.55144        0.657406
 C        -5.60091         2.54822       -0.460823
 C        -5.36555         3.83775       -0.316575
 O        -2.41474         2.35601        0.419733
 C        -3.15833         1.73923         1.12703
 C        -4.22451        0.794137        0.663104
 H         -6.3748        0.823304        0.529289
 H        -5.70608         2.05383         1.61796
 H        -5.78363           2.135        -1.44366
 H        -5.17159         4.27911         0.64803
 H        -5.36331         4.51047        -1.15549
 H        -3.13323         1.86804         2.22954
 H        -3.99924        0.443134       -0.343567
 H        -4.28783      -0.0519144         1.34713
