14
Dummy for XTB/TM calculation
 C        -6.31749         1.89955        0.941024
 C        -5.74813         2.42594        -0.12776
 C        -4.62585         3.42452      -0.0865416
 O        -3.54428         3.12648        0.787053
 C         -3.1718         1.84864         1.01789
 C        -3.36651        0.760983        0.289722
 H        -7.13431         1.20497        0.855309
 H        -5.97347         2.11852         1.93978
 H        -6.09703         2.16528        -1.11794
 H        -5.01504         4.37756        0.302914
 H        -4.23829         3.60531        -1.09952
 H        -2.59709         1.81023         1.93989
 H          -3.929        0.747093       -0.626927
 H        -2.96348       -0.174454        0.627802
