 xtb: 6.5.1 (579679a)
          06222318283D

 14 14  0     0  0            999 V2000
   -5.7043    1.5477    0.7265 C   0  0  0  0  0  0  0  0  0  0  0  0
   -5.6474    2.4988   -0.2843 C   0  0  0  0  0  0  0  0  0  0  0  0
   -4.6902    3.5603   -0.1381 C   0  0  0  0  0  0  0  0  0  0  0  0
   -3.2453    2.9631    0.1304 O   0  0  0  0  0  0  0  0  0  0  0  0
   -3.2086    1.8932    0.8964 C   0  0  0  0  0  0  0  0  0  0  0  0
   -3.9386    0.7597    0.5786 C   0  0  0  0  0  0  0  0  0  0  0  0
   -6.3547    0.6932    0.6068 H   0  0  0  0  0  0  0  0  0  0  0  0
   -5.6395    1.8954    1.7454 H   0  0  0  0  0  0  0  0  0  0  0  0
   -5.9134    2.2092   -1.2886 H   0  0  0  0  0  0  0  0  0  0  0  0
   -4.8102    4.1833    0.7445 H   0  0  0  0  0  0  0  0  0  0  0  0
   -4.5260    4.1616   -1.0319 H   0  0  0  0  0  0  0  0  0  0  0  0
   -2.8705    2.0411    1.9248 H   0  0  0  0  0  0  0  0  0  0  0  0
   -4.0210    0.4770   -0.4676 H   0  0  0  0  0  0  0  0  0  0  0  0
   -3.9040   -0.0705    1.2581 H   0  0  0  0  0  0  0  0  0  0  0  0
  1  2  4  0  0  0  0
  2  3  4  0  0  0  0
  3  4  1  0  0  0  0
  4  5  4  0  0  0  0
  1  6  1  0  0  0  0
  5  6  4  0  0  0  0
  1  7  1  0  0  0  0
  1  8  1  0  0  0  0
  2  9  1  0  0  0  0
  3 10  1  0  0  0  0
  3 11  1  0  0  0  0
  5 12  1  0  0  0  0
  6 13  1  0  0  0  0
  6 14  1  0  0  0  0
M  END
