14

C         -1.13957        5.72928       -3.45065
C         -2.24033        5.33149       -2.80677
C         -2.57371        3.87741       -2.65439
O         -1.97497        3.15296       -3.67232
C         -2.06629        3.33290       -5.02119
C         -2.71541        4.34196       -5.62076
H         -0.45309        5.00648       -3.88163
H         -0.92076        6.78743       -3.54990
H         -2.91048        6.07667       -2.38836
H         -3.67265        3.76244       -2.61949
H         -2.17328        3.51404       -1.68482
H         -1.56877        2.60677       -5.65594
H         -3.23511        5.12319       -5.08431
H         -2.72460        4.39567       -6.70471
