10

C         -7.11978        1.39716       -0.00000
C         -5.85547        2.20454        0.00000
C         -4.50594        1.54949        0.00000
O         -5.92652        3.42364        0.00000
H         -6.90594        0.30795       -0.00000
H         -7.71560        1.64087       -0.90446
H         -7.71560        1.64087        0.90445
H         -4.59180        0.44281        0.00000
H         -3.94246        1.86076        0.90446
H         -3.94246        1.86076       -0.90445
