 xtb: 6.5.1 (579679a)
          06132316463D

 14 13  0     0  0            999 V2000
   -7.4025    0.4932   -0.0679 C   0  0  0  0  0  0  0  0  0  0  0  0
   -8.0453    1.7197    0.5136 C   0  0  0  0  0  0  0  0  0  0  0  0
   -7.5434    2.4777    1.2921 O   0  0  0  0  0  0  0  0  0  0  0  0
   -4.4077    2.3738   -0.0803 C   0  0  0  0  0  0  0  0  0  0  0  0
   -5.1303    1.3915   -0.5819 C   0  0  0  0  0  0  0  0  0  0  0  0
   -5.9048    0.4065    0.2376 C   0  0  0  0  0  0  0  0  0  0  0  0
   -5.5543   -0.6045    0.0126 H   0  0  0  0  0  0  0  0  0  0  0  0
   -5.7458    0.6044    1.2982 H   0  0  0  0  0  0  0  0  0  0  0  0
   -7.9326   -0.3667    0.3540 H   0  0  0  0  0  0  0  0  0  0  0  0
   -7.5846    0.4840   -1.1456 H   0  0  0  0  0  0  0  0  0  0  0  0
   -9.0885    1.8687    0.1631 H   0  0  0  0  0  0  0  0  0  0  0  0
   -3.8697    3.0647   -0.7071 H   0  0  0  0  0  0  0  0  0  0  0  0
   -4.3313    2.5312    0.9825 H   0  0  0  0  0  0  0  0  0  0  0  0
   -5.2023    1.2556   -1.6546 H   0  0  0  0  0  0  0  0  0  0  0  0
  1  2  1  0  0  0  0
  2  3  2  0  0  0  0
  4  5  2  0  0  0  0
  1  6  1  0  0  0  0
  5  6  1  0  0  0  0
  6  7  1  0  0  0  0
  6  8  1  0  0  0  0
  1  9  1  0  0  0  0
  1 10  1  0  0  0  0
  2 11  1  0  0  0  0
  4 12  1  0  0  0  0
  4 13  1  0  0  0  0
  5 14  1  0  0  0  0
M  END
