 xtb: 6.5.1 (579679a)
          06132316453D

 14 13  0     0  0            999 V2000
   -7.9746    1.1996   -0.7031 C   0  0  0  0  0  0  0  0  0  0  0  0
   -7.6780    1.8866    0.3881 C   0  0  0  0  0  0  0  0  0  0  0  0
   -8.9827    0.8719   -0.8727 H   0  0  0  0  0  0  0  0  0  0  0  0
   -7.2474    0.9282   -1.4468 H   0  0  0  0  0  0  0  0  0  0  0  0
   -6.4875    2.4037    0.7749 O   0  0  0  0  0  0  0  0  0  0  0  0
   -8.4264    2.1293    1.1314 H   0  0  0  0  0  0  0  0  0  0  0  0
   -5.3885    2.2676   -0.0980 C   0  0  0  0  0  0  0  0  0  0  0  0
   -4.7719    0.8975   -0.1431 C   0  0  0  0  0  0  0  0  0  0  0  0
   -4.6420    2.9803    0.2737 H   0  0  0  0  0  0  0  0  0  0  0  0
   -5.6724    2.5770   -1.1150 H   0  0  0  0  0  0  0  0  0  0  0  0
   -5.0890   -0.1050    0.6528 C   0  0  0  0  0  0  0  0  0  0  0  0
   -4.0020    0.7945   -0.8965 H   0  0  0  0  0  0  0  0  0  0  0  0
   -5.8502   -0.0072    1.4090 H   0  0  0  0  0  0  0  0  0  0  0  0
   -4.6040   -1.0629    0.5785 H   0  0  0  0  0  0  0  0  0  0  0  0
  1  2  2  0  0  0  0
  1  3  1  0  0  0  0
  1  4  1  0  0  0  0
  2  5  1  0  0  0  0
  2  6  1  0  0  0  0
  5  7  1  0  0  0  0
  7  8  1  0  0  0  0
  7  9  1  0  0  0  0
  7 10  1  0  0  0  0
  8 11  2  0  0  0  0
  8 12  1  0  0  0  0
 11 13  1  0  0  0  0
 11 14  1  0  0  0  0
M  END
