14
Dummy for XTB/TM calculation
 C        -2.22167         5.55568        -3.62664
 C        -2.93482          5.1719        -2.36378
 C        -4.06061         4.48395        -2.25986
 O        -3.45266         2.87803        -4.13054
 C        -3.24538         3.63818        -5.03117
 C        -2.84584         5.08476        -4.94438
 H        -1.20997         5.14005        -3.57382
 H        -2.11046         6.64578        -3.65413
 H        -2.37352         5.40781        -1.46856
 H        -4.86454         4.49655        -2.97119
 H        -4.34619         4.10695        -1.28897
 H         -3.4761         3.33557        -6.07567
 H        -3.74939         5.66766        -5.15177
 H        -2.15143         5.28074        -5.76543
