14
Dummy for XTB/TM calculation
 C        -1.59133         5.55006        -3.74956
 C        -2.34441         5.15737        -2.66637
 C        -3.14136         3.89031        -2.65111
 O        -2.91911         2.97573        -3.69738
 C        -2.64549         3.46259        -4.92142
 C        -2.67105         4.78454        -5.27569
 H       -0.690246         5.02844        -4.03498
 H        -1.46085         6.62737        -3.84172
 H        -2.81115          5.9336        -2.06669
 H        -4.19718         4.19686        -2.69368
 H        -3.00904         3.31066        -1.73117
 H        -2.17881         2.70964        -5.54229
 H        -3.52731         5.40455        -5.07349
 H        -2.23181          4.9915        -6.24443
