14
Dummy for XTB/TM calculation
 C        -1.27857         5.73184        -3.49619
 C        -2.20294         5.26429        -2.67341
 C        -2.87519         3.92235         -2.7146
 O        -2.40972         2.99738        -3.67175
 C        -2.36395         3.36625        -4.97257
 C        -2.80788         4.46943        -5.55533
 H       -0.602452         5.11968        -4.06443
 H        -1.02979         6.78137         -3.4546
 H        -2.73475         5.95912        -2.03292
 H        -3.95269          4.0973        -2.86313
 H        -2.75269          3.4113         -1.7522
 H        -1.79868          2.6273        -5.52729
 H        -3.49195          5.1692        -5.11371
 H        -2.61813         4.59253        -6.60735
