14
Dummy for XTB/TM calculation
 C        -1.83575         5.54685        -3.85628
 C         -2.4666         5.07773        -2.61689
 C        -3.41676         3.93791        -2.67061
 O        -3.22773         3.00184        -3.70029
 C        -2.79477         3.49699        -4.87192
 C        -2.60107         4.92344        -5.08327
 H       -0.800972         5.20526        -3.96283
 H        -1.81631         6.64485        -3.92037
 H        -2.60513         5.75973        -1.79403
 H        -4.42556         4.35452        -2.83369
 H        -3.44588         3.36658        -1.73923
 H         -2.7018         2.75589        -5.64243
 H        -3.56004         5.45789        -5.11742
 H        -2.07146         5.10919        -6.01669
