14
Dummy for XTB/TM calculation
 C        -2.14686         5.59881        -3.66222
 C        -2.86054         5.18969        -2.40068
 C         -3.9219         4.38307        -2.36507
 O        -3.39892         2.91334        -4.02002
 C        -3.11445         3.59716         -4.9743
 C        -2.75077         5.05797        -4.95931
 H        -1.11968         5.23281         -3.5972
 H        -2.08251         6.69599        -3.71728
 H        -2.34648          5.4615        -1.49006
 H        -4.83212         4.51642        -2.92601
 H        -4.11814         3.90607        -1.40086
 H        -3.40499         3.25391        -5.98433
 H        -3.67359         5.59634        -5.19357
 H        -2.05042         5.21926        -5.78205
