12

C          1.87848      -13.44742       -7.45447
C          0.80203      -13.37232       -6.56400
C          2.60462      -12.29476       -7.77292
C          2.25435      -11.06700       -7.20087
C          1.17787      -10.99189       -6.31043
C          0.45170      -12.14454       -5.99201
H          2.14949      -14.39725       -7.89699
H          0.24029      -14.26406       -6.31762
H          3.43738      -12.35286       -8.46183
H          2.81615      -10.17529       -7.44720
H          0.90687      -10.04205       -5.86790
H         -0.38111      -12.08643       -5.30316
