10

C         -1.17593        0.13902        1.35651
O         -0.54359       -1.04459        1.22269
O         -1.95041        0.32589        2.28143
H         -0.68667       -1.76697        1.85048
H         -4.20406       -0.70296        3.81874
O         -4.40388       -1.47474        4.36719
C         -3.84164       -2.67592        4.12259
O         -3.06059       -2.81636        3.19502
H         -4.08576       -3.52281        4.75429
H         -0.99447        0.93027        0.63758
