10

C         -3.49224       -1.28418        1.36016
O         -3.54081        0.05797        1.26035
O         -2.49726       -1.88586        0.99262
H         -4.32485        0.54482        1.54897
C         -0.51851        1.88706        0.08542
O         -1.51149        2.48909        0.45779
O         -0.46391        0.54623        0.19890
H          0.31859        0.05912       -0.09342
H         -4.33544       -1.83384        1.76660
H          0.31803        2.43535       -0.33632
