10
Coordinates from ORCA-job Acetone
  C   -7.10575090810427      1.38817092430973     -0.00000055223341
  C   -5.85726325950020      2.23513129147897     -0.00000975732563
  C   -4.51843755764685      1.53875800973496     -0.00000005025443
  O   -5.92767318907536      3.44441787516422     -0.00000302151212
  H   -6.90042452829762      0.32095775287761      0.00000545012207
  H   -7.71119953417290      1.62679024322953     -0.87624697714162
  H   -7.71119583021801      1.62680111975843      0.87624558678166
  H   -4.59892821684375      0.45504541538584     -0.00001014106806
  H   -3.94535891981362      1.84638072836193      0.87638921131022
  H   -3.94533805632739      1.84639663969877     -0.87636974867868
