7

C         -4.82979        0.75704       -1.06936
H         -4.01754        1.50745       -1.15599
H         -5.56223        0.90868       -1.88868
H         -5.33948        0.87510       -0.09108
H         -4.39987       -0.26309       -1.14168
O         -2.70987        1.47586       -1.20051
H         -2.01076        0.77759       -1.13460
