6

C         -4.95943       -4.77271       -7.19667
C         -3.69638       -4.60656       -6.37775
C         -5.03218       -4.80916       -5.68443
H         -3.42585       -3.52976       -6.33084
H         -4.99013       -5.81992       -7.56135
H         -5.39583       -3.82848       -5.30904
