10

C         -5.03282       -9.08096       -7.28709
C         -5.00791       -8.07216       -6.34420
C         -3.95780       -7.20920       -6.60511
C         -3.26925       -7.63171       -7.72526
C         -3.91621       -8.86277       -8.23610
H         -3.63261       -9.47431       -9.11718
H         -2.40470       -7.13853       -8.14869
H         -3.70619       -6.33214       -6.02392
H         -5.70960       -7.97849       -5.52616
H         -5.75146       -9.88881       -7.31717
