8

C         -7.10460        3.97617        2.71457
C         -5.90908        4.71679        2.34203
C         -4.78217        4.15500        1.86528
C         -3.63424        4.96878        1.50446
H         -5.95094        5.78963        2.45915
H         -4.69269        3.08353        1.73176
N         -2.71041        5.60593        1.21248
N         -8.08343        3.43313        3.02044
