14

C         -7.35661        1.34785       -7.00607
C         -7.41754       -0.06524       -6.40633
O         -6.92443        2.27656       -6.02998
O         -6.14140       -0.45272       -5.93368
C         -5.70901        0.47594       -4.95763
C         -5.64834        1.88919       -5.55713
H         -8.37152        1.63585       -7.35205
H         -6.68312        1.37373       -7.89285
H         -7.74039       -0.77706       -7.19484
H         -8.16835       -0.11561       -5.58511
H         -4.69396        0.18801       -4.61201
H         -6.38224        0.44980       -4.07066
H         -4.89741        1.93995       -6.37820
H         -5.32579        2.60089       -4.76839
