12
Coordinates from ORCA-job OPT_C
  C   -4.57354814039719     -3.19170766770354     -0.07309281304194
  C   -3.38641513972420     -2.60269331144854     -0.02170620967124
  C   -3.06000494327689     -1.38972388976135      0.78947657040148
  C   -2.61854796561484     -0.21479955573772     -0.07997986909453
  H   -4.74936401019631     -4.06259714255959     -0.68977179985868
  H   -5.41612374641147     -2.82707888274078      0.50209484384743
  H   -2.57477776067197     -3.00690618904557     -0.62145000706146
  H   -2.25963207627663     -1.63140211621650      1.49586600592478
  H   -3.92615992272868     -1.10397613244731      1.39068581018377
  H   -1.73745484306071     -0.46749120293088     -0.67155010522886
  H   -2.36694401585085      0.65327094398001      0.52953933343227
  H   -3.40808743579021      0.07714514661178     -0.77202175983302
