 xtb: 6.5.1 (579679a)
          06222311253D

 14 13  0     0  0            999 V2000
   -2.2364    5.3873   -3.5662 C   0  0  0  0  0  0  0  0  0  0  0  0
   -3.0433    5.1631   -2.3238 C   0  0  0  0  0  0  0  0  0  0  0  0
   -4.2738    4.6927   -2.2526 C   0  0  0  0  0  0  0  0  0  0  0  0
   -2.7145    2.7816   -4.6410 O   0  0  0  0  0  0  0  0  0  0  0  0
   -3.2998    3.7099   -5.1210 C   0  0  0  0  0  0  0  0  0  0  0  0
   -3.0068    5.1614   -4.8641 C   0  0  0  0  0  0  0  0  0  0  0  0
   -1.3811    4.7050   -3.5422 H   0  0  0  0  0  0  0  0  0  0  0  0
   -1.8413    6.4071   -3.5469 H   0  0  0  0  0  0  0  0  0  0  0  0
   -2.5171    5.4181   -1.4122 H   0  0  0  0  0  0  0  0  0  0  0  0
   -4.8443    4.4089   -3.1214 H   0  0  0  0  0  0  0  0  0  0  0  0
   -4.7683    4.5576   -1.3060 H   0  0  0  0  0  0  0  0  0  0  0  0
   -4.1206    3.5490   -5.8516 H   0  0  0  0  0  0  0  0  0  0  0  0
   -3.9348    5.7350   -4.8777 H   0  0  0  0  0  0  0  0  0  0  0  0
   -2.4042    5.5012   -5.7130 H   0  0  0  0  0  0  0  0  0  0  0  0
  1  2  1  0  0  0  0
  2  3  2  0  0  0  0
  4  5  2  0  0  0  0
  1  6  1  0  0  0  0
  5  6  1  0  0  0  0
  1  7  1  0  0  0  0
  1  8  1  0  0  0  0
  2  9  1  0  0  0  0
  3 10  1  0  0  0  0
  3 11  1  0  0  0  0
  5 12  1  0  0  0  0
  6 13  1  0  0  0  0
  6 14  1  0  0  0  0
M  END
