38

C         -2.96709       -2.79380       -3.42320
C         -2.52986       -1.47969       -3.55167
C         -1.84070       -1.51582       -1.23852
C         -2.25164       -2.83931       -1.15150
C         -2.86709       -3.47885       -2.21738
C         -1.90638       -0.88919       -2.46975
C         -0.93037        0.18019       -2.73903
C         -1.65379       -3.66272       -0.08540
C         -3.12526       -3.58028       -4.65337
C         -1.70514       -3.61673       -5.28337
C         -0.52475       -4.13359       -4.37603
C         -0.11576       -3.60080       -0.34426
C          0.42775       -4.03563       -1.75969
C          0.47155       -0.51167       -2.62465
C          0.76389       -1.80718       -3.48984
H         -2.47274       -1.01990       -4.53190
H         -1.25772       -1.07052       -0.44091
H         -3.06261       -4.54471       -2.17567
H         -1.03382        1.02803       -2.02812
H         -1.03989        0.57650       -3.77299
H         -1.98323       -4.72293       -0.15588
H         -1.91503       -3.27845        0.92404
H         -3.87527       -3.13358       -5.34103
H         -1.41291       -2.62965       -5.69907
H         -1.79658       -4.30083       -6.15637
H          0.23224       -4.34081       -5.17968
H         -0.80416       -5.13841       -3.99321
H          0.34515       -4.27121        0.41423
H          0.28626       -2.59225       -0.12324
H          0.14365       -5.10256       -1.88791
H          1.52951       -4.04528       -1.55948
H          0.71243       -0.75055       -1.56877
H          1.20153        0.26920       -2.93193
H          1.87614       -1.87072       -3.40540
H          0.57121       -1.56703       -4.55682
C          0.21772       -3.29632       -3.18800
H         -3.43605       -4.62468       -4.42756
H          1.15978       -3.78570       -3.53364
