14
Dummy for XTB/TM calculation
 C        -7.50445          1.4813       -0.758985
 C        -7.49722         1.89469        0.632967
 H         -8.4864         1.16123        -1.08978
 H        -6.86747        0.504135       -0.790958
 O        -6.36665         2.47811         1.08818
 H        -7.86504          1.2292         1.39675
 C        -5.32681         2.27754         0.24273
 C        -4.94462         1.03069        -0.15077
 H         -4.9104         3.15008       -0.228022
 H        -7.00973         2.21979        -1.38609
 C        -5.45779       -0.166246        0.310344
 H        -4.18688        0.979322       -0.914482
 H        -6.25239       -0.191368          1.0519
 H        -4.62456       -0.813932        0.535023
