17
Coordinates from ORCA-job TMS
  Si  -2.02182527673146      1.20661998336275     -0.01510253850524
  C   -0.73267089037452      2.57951470484072      0.09264452381923
  C   -3.75158492445491      1.95862945442895      0.02808956612383
  C   -1.79486033812369      0.25573576163919     -1.62851927392285
  C   -1.80381271622192      0.03160196941732      1.44417344714504
  H   -0.82522141848612      3.27816496202034     -0.74097719730933
  H   0.28094849868959      2.17427819876484      0.07160749993353
  H   -0.83818193177263      3.15317362964629      1.01566716574641
  H   -3.90034785223620      2.65968821269220     -0.79560950754337
  H   -3.92670424136817      2.50258866272657      0.95828134506344
  H   -4.52168025128738      1.18910164696971     -0.05294802610400
  H   -1.90845234895881      0.91151003233690     -2.49413814804364
  H   -2.52985208304597     -0.54561213632122     -1.72517200590226
  H   -0.80372699243733     -0.19814482193003     -1.68837128373812
  H   -1.93483159239054      0.54987469216264      2.39594460808011
  H   -0.80772360268179     -0.41532207606807      1.44763118551314
  H   -2.52886203811814     -0.78426287668914      1.41167863964409
