17
Coordinates from ORCA-job OPT_TMS
  Si  -2.02164890047970      1.20685936896256     -0.01521156966308
  C   -0.73278193942897      2.58015635248272      0.09237020833477
  C   -3.75175827687766      1.95834361243028      0.02817955241725
  C   -1.79420588657667      0.25550027588395     -1.62836119278611
  C   -1.80414415752267      0.03174629952108      1.44418151853125
  H   -0.82384179026811      3.28174822178710     -0.73834795724496
  H   0.28201134758399      2.17923082942016      0.06923126702781
  H   -0.83345761952548      3.15473613995993      1.01482037715341
  H   -3.90486230647823      2.66028394085762     -0.79337300731708
  H   -3.93057470485910      2.50246860417658      0.95704804140825
  H   -4.52419261487377      1.19180268428789     -0.05291199706955
  H   -1.90533237952781      0.90766180840167     -2.49645135247184
  H   -2.52783783066361     -0.54590873557066     -1.72954908902462
  H   -0.80478510484349     -0.20075939566585     -1.69053795439896
  H   -1.93210706465435      0.54657324174108      2.39774177330027
  H   -0.81058772050520     -0.41971291866134      1.45013330584841
  H   -2.52928305049917     -0.78359033001479      1.41591807595478
